[General]
network = MyNet
record-eventlog = true
sim-time-limit = 500s